*----------------------------------------------------------------------
* SPICE Model generated by Murata Manufacturing Co., Ltd.
* Copyright(C) Murata Manufacturing Co., Ltd.
* MURATA P/N : BLM18AG102SN1
* Property : Z@100MHz = 1000[ohm]
*----------------------------------------------------------------------
* Applicable Conditions:
*   Frequency Range = 1MHz - 3GHz
*   Temperature = 25 degC
*   DC Bias Current = 0 A
*   Small Signal Operation
*----------------------------------------------------------------------
.SUBCKT BLM18AG102SN1 1 2
R1 1 n1 858.5
L1 1 n1 1.383e-6
C2 n1 n2 2.399e-10
R2 n2 n3 321.0
L2 n1 n3 3.245e-6
C1 1 n3 6.291e-13
R3 n3 n4 16.35
L3 n3 n4 5.690e-7
R4 n4 2 3.300e-1
.ENDS BLM18AG102SN1
*----------------------------------------------------------------------*----------------------------------------------------------------------
* SPICE Model generated by Murata Manufacturing Co., Ltd.
* Copyright(C) Murata Manufacturing Co., Ltd.
* MURATA P/N : BLM18AG121SN1
* Property : Z@100MHz = 120[ohm]
*----------------------------------------------------------------------
* Applicable Conditions:
*   Frequency Range = 1MHz - 3GHz
*   Temperature = 25 degC
*   DC Bias Current = 0 A
*   Small Signal Operation
*----------------------------------------------------------------------
.SUBCKT BLM18AG121SN1 1 2
R1 1 n1 93.77
L1 1 n1 1.421e-7
C2 n1 n2 3.751e-9
R2 n2 n3 23.92
L2 n1 n3 4.712e-7
C1 1 n3 8.170e-13
R3 n3 n4 43.09
L3 n3 n4 2.828e-7
R4 n4 2 1.050e-1
.ENDS BLM18AG121SN1
*----------------------------------------------------------------------*----------------------------------------------------------------------
* SPICE Model generated by Murata Manufacturing Co., Ltd.
* Copyright(C) Murata Manufacturing Co., Ltd.
* MURATA P/N : BLM18AG151SN1
* Property : Z@100MHz = 150[ohm]
*----------------------------------------------------------------------
* Applicable Conditions:
*   Frequency Range = 1MHz - 3GHz
*   Temperature = 25 degC
*   DC Bias Current = 0 A
*   Small Signal Operation
*----------------------------------------------------------------------
.SUBCKT BLM18AG151SN1 1 2
R1 1 n1 125.6
L1 1 n1 1.992e-7
C2 n1 n2 3.011e-9
R2 n2 n3 34.88
L2 n1 n3 5.352e-7
C1 1 n3 7.808e-13
R3 n3 n4 31.75
L3 n3 n4 1.911e-7
R4 n4 2 1.200e-1
.ENDS BLM18AG151SN1
*----------------------------------------------------------------------*----------------------------------------------------------------------
* SPICE Model generated by Murata Manufacturing Co., Ltd.
* Copyright(C) Murata Manufacturing Co., Ltd.
* MURATA P/N : BLM18AG221SN1
* Property : Z@100MHz = 220[ohm]
*----------------------------------------------------------------------
* Applicable Conditions:
*   Frequency Range = 1MHz - 3GHz
*   Temperature = 25 degC
*   DC Bias Current = 0 A
*   Small Signal Operation
*----------------------------------------------------------------------
.SUBCKT BLM18AG221SN1 1 2
R1 1 n1 193.7
L1 1 n1 3.466e-7
C2 n1 n2 2.326e-9
R2 n2 n3 58.83
L2 n1 n3 8.941e-7
C1 1 n3 7.867e-13
R3 n3 n4 24.83
L3 n3 n4 1.561e-7
R4 n4 2 1.500e-1
.ENDS BLM18AG221SN1
*----------------------------------------------------------------------*----------------------------------------------------------------------
* SPICE Model generated by Murata Manufacturing Co., Ltd.
* Copyright(C) Murata Manufacturing Co., Ltd.
* MURATA P/N : BLM18AG331SN1
* Property : Z@100MHz = 330[ohm]
*----------------------------------------------------------------------
* Applicable Conditions:
*   Frequency Range = 1MHz - 3GHz
*   Temperature = 25 degC
*   DC Bias Current = 0 A
*   Small Signal Operation
*----------------------------------------------------------------------
.SUBCKT BLM18AG331SN1 1 2
R1 1 n1 309.2
L1 1 n1 5.459e-7
C2 n1 n2 1.191e-9
R2 n2 n3 101.4
L2 n1 n3 1.469e-6
C1 1 n3 7.044e-13
R3 n3 n4 18.82
L3 n3 n4 1.125e-7
R4 n4 2 1.700e-1
.ENDS BLM18AG331SN1
*----------------------------------------------------------------------*----------------------------------------------------------------------
* SPICE Model generated by Murata Manufacturing Co., Ltd.
* Copyright(C) Murata Manufacturing Co., Ltd.
* MURATA P/N : BLM18AG471SN1
* Property : Z@100MHz = 470[ohm]
*----------------------------------------------------------------------
* Applicable Conditions:
*   Frequency Range = 1MHz - 3GHz
*   Temperature = 25 degC
*   DC Bias Current = 0 A
*   Small Signal Operation
*----------------------------------------------------------------------
.SUBCKT BLM18AG471SN1 1 2
R1 1 n1 402.6
L1 1 n1 7.897e-7
C2 n1 n2 7.973e-10
R2 n2 n3 128.2
L2 n1 n3 1.668e-6
C1 1 n3 7.135e-13
R3 n3 n4 22.69
L3 n3 n4 6.162e-7
R4 n4 2 2.350e-1
.ENDS BLM18AG471SN1
*----------------------------------------------------------------------*----------------------------------------------------------------------
* SPICE Model generated by Murata Manufacturing Co., Ltd.
* Copyright(C) Murata Manufacturing Co., Ltd.
* MURATA P/N : BLM18AG601SN1
* Property : Z@100MHz = 600[ohm]
*----------------------------------------------------------------------
* Applicable Conditions:
*   Frequency Range = 1MHz - 3GHz
*   Temperature = 25 degC
*   DC Bias Current = 0 A
*   Small Signal Operation
*----------------------------------------------------------------------
.SUBCKT BLM18AG601SN1 1 2
R1 1 n1 526.0
L1 1 n1 9.800e-7
C2 n1 n2 6.265e-10
R2 n2 n3 157.2
L2 n1 n3 1.870e-6
C1 1 n3 7.195e-13
R3 n3 n4 20.19
L3 n3 n4 6.138e-7
R4 n4 2 2.300e-1
.ENDS BLM18AG601SN1
*----------------------------------------------------------------------*----------------------------------------------------------------------
* SPICE Model generated by Murata Manufacturing Co., Ltd.
* Copyright(C) Murata Manufacturing Co., Ltd.
* MURATA P/N : BLM18BA050SN1
* Property : Z@100MHz = 5[ohm]
*----------------------------------------------------------------------
* Applicable Conditions:
*   Frequency Range = 1MHz - 3GHz
*   Temperature = 25 degC
*   DC Bias Current = 0 A
*   Small Signal Operation
*----------------------------------------------------------------------
.SUBCKT BLM18BA050SN1 1 2
R1 1 n1 86.38
C2 n1 n2 2.844e-12
L1 1 n2 7.644e-9
R2 n2 n3 3.944e-1
L2 n2 n3 9.467e-10
C1 1 n3 1.180e-13
R3 n3 n4 1.109e+4
L3 n3 n4 1.493e-11
R4 n4 2 9.000e-2
.ENDS BLM18BA050SN1
*----------------------------------------------------------------------*----------------------------------------------------------------------
* SPICE Model generated by Murata Manufacturing Co., Ltd.
* Copyright(C) Murata Manufacturing Co., Ltd.
* MURATA P/N : BLM18BA100SN1
* Property : Z@100MHz = 10[ohm]
*----------------------------------------------------------------------
* Applicable Conditions:
*   Frequency Range = 1MHz - 3GHz
*   Temperature = 25 degC
*   DC Bias Current = 0 A
*   Small Signal Operation
*----------------------------------------------------------------------
.SUBCKT BLM18BA100SN1 1 2
R1 1 n1 160.7
C2 n1 n2 1.428e-12
L1 1 n2 1.517e-8
R2 n2 n3 5.926e-1
L2 n2 n3 1.387e-9
C1 1 n3 4.443e-13
R3 n3 n4 2.621e+5
L3 n3 n4 4.855e-10
R4 n4 2 1.300e-1
.ENDS BLM18BA100SN1
*----------------------------------------------------------------------*----------------------------------------------------------------------
* SPICE Model generated by Murata Manufacturing Co., Ltd.
* Copyright(C) Murata Manufacturing Co., Ltd.
* MURATA P/N : BLM18BA121SN1
* Property : Z@100MHz = 120[ohm]
*----------------------------------------------------------------------
* Applicable Conditions:
*   Frequency Range = 1MHz - 3GHz
*   Temperature = 25 degC
*   DC Bias Current = 0 A
*   Small Signal Operation
*----------------------------------------------------------------------
.SUBCKT BLM18BA121SN1 1 2
R1 1 n1 17.59
C2 n1 n2 6.489e-13
L1 1 n2 1.800e-7
R2 n2 n3 4.544
L2 n2 n3 7.830e-9
C1 1 n3 6.837e-14
R3 n3 n4 1.985
L3 n3 n4 1.981e-2
R4 n4 2 5.000e-1
.ENDS BLM18BA121SN1
*----------------------------------------------------------------------*----------------------------------------------------------------------
* SPICE Model generated by Murata Manufacturing Co., Ltd.
* Copyright(C) Murata Manufacturing Co., Ltd.
* MURATA P/N : BLM18BA220SN1
* Property : Z@100MHz = 22[ohm]
*----------------------------------------------------------------------
* Applicable Conditions:
*   Frequency Range = 1MHz - 3GHz
*   Temperature = 25 degC
*   DC Bias Current = 0 A
*   Small Signal Operation
*----------------------------------------------------------------------
.SUBCKT BLM18BA220SN1 1 2
R1 1 n1 317.9
C2 n1 n2 6.474e-13
L1 1 n2 3.235e-8
R2 n2 n3 1.033
L2 n2 n3 3.776e-9
C1 1 n3 5.196e-13
R3 n3 n4 7430
L3 n3 n4 1.164e-9
R4 n4 2 1.500e-1
.ENDS BLM18BA220SN1
*----------------------------------------------------------------------*----------------------------------------------------------------------
* SPICE Model generated by Murata Manufacturing Co., Ltd.
* Copyright(C) Murata Manufacturing Co., Ltd.
* MURATA P/N : BLM18BA470SN1
* Property : Z@100MHz = 47[ohm]
*----------------------------------------------------------------------
* Applicable Conditions:
*   Frequency Range = 1MHz - 3GHz
*   Temperature = 25 degC
*   DC Bias Current = 0 A
*   Small Signal Operation
*----------------------------------------------------------------------
.SUBCKT BLM18BA470SN1 1 2
R1 1 n1 510.2
C2 n1 n2 2.926e-13
L1 1 n2 6.836e-8
R2 n2 n3 1.519
L2 n2 n3 9.892e-9
C1 1 n3 5.428e-13
R3 n3 n4 986.8
L3 n3 n4 1.900e-9
R4 n4 2 3.000e-1
.ENDS BLM18BA470SN1
*----------------------------------------------------------------------*----------------------------------------------------------------------
* SPICE Model generated by Murata Manufacturing Co., Ltd.
* Copyright(C) Murata Manufacturing Co., Ltd.
* MURATA P/N : BLM18BA750SN1
* Property : Z@100MHz = 75[ohm]
*----------------------------------------------------------------------
* Applicable Conditions:
*   Frequency Range = 1MHz - 3GHz
*   Temperature = 25 degC
*   DC Bias Current = 0 A
*   Small Signal Operation
*----------------------------------------------------------------------
.SUBCKT BLM18BA750SN1 1 2
R1 1 n1 756.9
C2 n1 n2 1.821e-13
L1 1 n2 1.159e-7
R2 n2 n3 1.689
L2 n2 n3 1.586e-8
C1 1 n3 4.927e-13
R3 n3 n4 58.58
L3 n3 n4 1.666e-9
R4 n4 2 3.500e-1
.ENDS BLM18BA750SN1
*----------------------------------------------------------------------*----------------------------------------------------------------------
* SPICE Model generated by Murata Manufacturing Co., Ltd.
* Copyright(C) Murata Manufacturing Co., Ltd.
* MURATA P/N : BLM18BB050SN1
* Property : Z@100MHz = 5[ohm]
*----------------------------------------------------------------------
* Applicable Conditions:
*   Frequency Range = 1MHz - 3GHz
*   Temperature = 25 degC
*   DC Bias Current = 0 A
*   Small Signal Operation
*----------------------------------------------------------------------
.SUBCKT BLM18BB050SN1 1 2
R1 1 n1 9.446
C2 n1 n2 1.015e-10
L1 1 n2 5.354e-9
R2 n2 n3 7.953
L2 n2 n3 1.218e-9
C1 1 n3 1.543e-12
R3 n3 n4 6295
L3 n3 n4 7.908e-10
R4 n4 2 4.000e-3
.ENDS BLM18BB050SN1
*----------------------------------------------------------------------*----------------------------------------------------------------------
* SPICE Model generated by Murata Manufacturing Co., Ltd.
* Copyright(C) Murata Manufacturing Co., Ltd.
* MURATA P/N : BLM18BB100SN1
* Property : Z@100MHz = 10[ohm]
*----------------------------------------------------------------------
* Applicable Conditions:
*   Frequency Range = 1MHz - 3GHz
*   Temperature = 25 degC
*   DC Bias Current = 0 A
*   Small Signal Operation
*----------------------------------------------------------------------
.SUBCKT BLM18BB100SN1 1 2
R1 1 n1 15.58
C2 n1 n2 5.662e-11
L1 1 n2 7.992e-9
R2 n2 n3 33.85
L2 n2 n3 5.911e-9
C1 1 n3 5.801e-13
R3 n3 n4 5893
L3 n3 n4 9.375e-10
R4 n4 2 1.000e-2
.ENDS BLM18BB100SN1
*----------------------------------------------------------------------*----------------------------------------------------------------------
* SPICE Model generated by Murata Manufacturing Co., Ltd.
* Copyright(C) Murata Manufacturing Co., Ltd.
* MURATA P/N : BLM18BB121SN1
* Property : Z@100MHz = 120[ohm]
*----------------------------------------------------------------------
* Applicable Conditions:
*   Frequency Range = 1MHz - 3GHz
*   Temperature = 25 degC
*   DC Bias Current = 0 A
*   Small Signal Operation
*----------------------------------------------------------------------
.SUBCKT BLM18BB121SN1 1 2
R1 1 n1 147.2
C2 n1 n2 5.083e-12
L1 1 n2 9.154e-8
R2 n2 n3 393.4
L2 n2 n3 7.675e-8
C1 1 n3 4.625e-13
R3 n3 n4 51.27
L3 n3 n4 1.837e-9
R4 n4 2 1.800e-1
.ENDS BLM18BB121SN1
*----------------------------------------------------------------------*----------------------------------------------------------------------
* SPICE Model generated by Murata Manufacturing Co., Ltd.
* Copyright(C) Murata Manufacturing Co., Ltd.
* MURATA P/N : BLM18BB141SN1
* Property : Z@100MHz = 140[ohm]
*----------------------------------------------------------------------
* Applicable Conditions:
*   Frequency Range = 1MHz - 3GHz
*   Temperature = 25 degC
*   DC Bias Current = 0 A
*   Small Signal Operation
*----------------------------------------------------------------------
.SUBCKT BLM18BB141SN1 1 2
R1 1 n1 172.1
C2 n1 n2 4.287e-12
L1 1 n2 1.051e-7
R2 n2 n3 459.1
L2 n2 n3 8.681e-8
C1 1 n3 5.410e-13
R3 n3 n4 40.54
L3 n3 n4 2.076e-9
R4 n4 2 2.000e-1
.ENDS BLM18BB141SN1
*----------------------------------------------------------------------*----------------------------------------------------------------------
* SPICE Model generated by Murata Manufacturing Co., Ltd.
* Copyright(C) Murata Manufacturing Co., Ltd.
* MURATA P/N : BLM18BB151SN1
* Property : Z@100MHz = 150[ohm]
*----------------------------------------------------------------------
* Applicable Conditions:
*   Frequency Range = 1MHz - 3GHz
*   Temperature = 25 degC
*   DC Bias Current = 0 A
*   Small Signal Operation
*----------------------------------------------------------------------
.SUBCKT BLM18BB151SN1 1 2
R1 1 n1 232.6
C2 n1 n2 3.504e-12
L1 1 n2 1.231e-7
R2 n2 n3 886.8
L2 n2 n3 6.791e-8
C1 1 n3 7.167e-13
R3 n3 n4 20.17
L3 n3 n4 1.554e-8
R4 n4 2 2.000e-1
.ENDS BLM18BB151SN1
*----------------------------------------------------------------------*----------------------------------------------------------------------
* SPICE Model generated by Murata Manufacturing Co., Ltd.
* Copyright(C) Murata Manufacturing Co., Ltd.
* MURATA P/N : BLM18BB220SN1
* Property : Z@100MHz = 22[ohm]
*----------------------------------------------------------------------
* Applicable Conditions:
*   Frequency Range = 1MHz - 3GHz
*   Temperature = 25 degC
*   DC Bias Current = 0 A
*   Small Signal Operation
*----------------------------------------------------------------------
.SUBCKT BLM18BB220SN1 1 2
R1 1 n1 30.70
C2 n1 n2 2.765e-11
L1 1 n2 1.843e-8
R2 n2 n3 41.70
L2 n2 n3 8.807e-9
C1 1 n3 3.919e-13
R3 n3 n4 51.77
L3 n3 n4 4.600e-9
R4 n4 2 8.000e-2
.ENDS BLM18BB220SN1
*----------------------------------------------------------------------*----------------------------------------------------------------------
* SPICE Model generated by Murata Manufacturing Co., Ltd.
* Copyright(C) Murata Manufacturing Co., Ltd.
* MURATA P/N : BLM18BB221SN1
* Property : Z@100MHz = 220[ohm]
*----------------------------------------------------------------------
* Applicable Conditions:
*   Frequency Range = 1MHz - 3GHz
*   Temperature = 25 degC
*   DC Bias Current = 0 A
*   Small Signal Operation
*----------------------------------------------------------------------
.SUBCKT BLM18BB221SN1 1 2
R1 1 n1 347.5
C2 n1 n2 2.211e-12
L1 1 n2 1.838e-7
R2 n2 n3 1131
L2 n2 n3 9.258e-8
C1 1 n3 5.412e-13
R3 n3 n4 25.15
L3 n3 n4 3.023e-8
R4 n4 2 2.600e-1
.ENDS BLM18BB221SN1
*----------------------------------------------------------------------*----------------------------------------------------------------------
* SPICE Model generated by Murata Manufacturing Co., Ltd.
* Copyright(C) Murata Manufacturing Co., Ltd.
* MURATA P/N : BLM18BB331SN1
* Property : Z@100MHz = 330[ohm]
*----------------------------------------------------------------------
* Applicable Conditions:
*   Frequency Range = 1MHz - 3GHz
*   Temperature = 25 degC
*   DC Bias Current = 0 A
*   Small Signal Operation
*----------------------------------------------------------------------
.SUBCKT BLM18BB331SN1 1 2
R1 1 n1 1049
C2 n1 n2 1.044e-12
L1 1 n2 3.675e-7
R2 n2 n3 1.381
L2 n2 n3 2.194e-8
C1 1 n3 4.816e-13
R3 n3 n4 33.74
L3 n3 n4 1.960e-9
R4 n4 2 3.700e-1
.ENDS BLM18BB331SN1
*----------------------------------------------------------------------*----------------------------------------------------------------------
* SPICE Model generated by Murata Manufacturing Co., Ltd.
* Copyright(C) Murata Manufacturing Co., Ltd.
* MURATA P/N : BLM18BB470SN1
* Property : Z@100MHz = 47[ohm]
*----------------------------------------------------------------------
* Applicable Conditions:
*   Frequency Range = 1MHz - 3GHz
*   Temperature = 25 degC
*   DC Bias Current = 0 A
*   Small Signal Operation
*----------------------------------------------------------------------
.SUBCKT BLM18BB470SN1 1 2
R1 1 n1 77.99
C2 n1 n2 1.146e-11
L1 1 n2 4.504e-8
R2 n2 n3 148.9
L2 n2 n3 1.911e-8
C1 1 n3 5.102e-13
R3 n3 n4 33.34
L3 n3 n4 7.474e-9
R4 n4 2 1.200e-1
.ENDS BLM18BB470SN1
*----------------------------------------------------------------------*----------------------------------------------------------------------
* SPICE Model generated by Murata Manufacturing Co., Ltd.
* Copyright(C) Murata Manufacturing Co., Ltd.
* MURATA P/N : BLM18BB471SN1
* Property : Z@100MHz = 470[ohm]
*----------------------------------------------------------------------
* Applicable Conditions:
*   Frequency Range = 1MHz - 3GHz
*   Temperature = 25 degC
*   DC Bias Current = 0 A
*   Small Signal Operation
*----------------------------------------------------------------------
.SUBCKT BLM18BB471SN1 1 2
R1 1 n1 1156
C2 n1 n2 7.618e-13
L1 1 n2 5.290e-7
R2 n2 n3 2.056
L2 n2 n3 3.225e-8
C1 1 n3 7.687e-13
R3 n3 n4 15.55
L3 n3 n4 8.447e-10
R4 n4 2 5.300e-1
.ENDS BLM18BB471SN1
*----------------------------------------------------------------------*----------------------------------------------------------------------
* SPICE Model generated by Murata Manufacturing Co., Ltd.
* Copyright(C) Murata Manufacturing Co., Ltd.
* MURATA P/N : BLM18BB600SN1
* Property : Z@100MHz = 60[ohm]
*----------------------------------------------------------------------
* Applicable Conditions:
*   Frequency Range = 1MHz - 3GHz
*   Temperature = 25 degC
*   DC Bias Current = 0 A
*   Small Signal Operation
*----------------------------------------------------------------------
.SUBCKT BLM18BB600SN1 1 2
R1 1 n1 87.40
C2 n1 n2 9.793e-12
L1 1 n2 5.209e-8
R2 n2 n3 187.9
L2 n2 n3 2.432e-8
C1 1 n3 5.645e-13
R3 n3 n4 30.22
L3 n3 n4 1.070e-8
R4 n4 2 1.300e-1
.ENDS BLM18BB600SN1
*----------------------------------------------------------------------*----------------------------------------------------------------------
* SPICE Model generated by Murata Manufacturing Co., Ltd.
* Copyright(C) Murata Manufacturing Co., Ltd.
* MURATA P/N : BLM18BB750SN1
* Property : Z@100MHz = 75[ohm]
*----------------------------------------------------------------------
* Applicable Conditions:
*   Frequency Range = 1MHz - 3GHz
*   Temperature = 25 degC
*   DC Bias Current = 0 A
*   Small Signal Operation
*----------------------------------------------------------------------
.SUBCKT BLM18BB750SN1 1 2
R1 1 n1 109.1
C2 n1 n2 7.740e-12
L1 1 n2 6.572e-8
R2 n2 n3 245.0
L2 n2 n3 3.159e-8
C1 1 n3 5.244e-13
R3 n3 n4 26.26
L3 n3 n4 8.545e-9
R4 n4 2 1.500e-1
.ENDS BLM18BB750SN1
*----------------------------------------------------------------------*----------------------------------------------------------------------
* SPICE Model generated by Murata Manufacturing Co., Ltd.
* Copyright(C) Murata Manufacturing Co., Ltd.
* MURATA P/N : BLM18BD102SN1
* Property : Z@100MHz = 1000[ohm]
*----------------------------------------------------------------------
* Applicable Conditions:
*   Frequency Range = 1MHz - 3GHz
*   Temperature = 25 degC
*   DC Bias Current = 0 A
*   Small Signal Operation
*----------------------------------------------------------------------
.SUBCKT BLM18BD102SN1 1 2
R1 1 n1 308.6
C2 n1 n2 1.396e-11
L1 1 n2 5.321e-7
R2 n2 n3 1591
L2 n2 n3 8.418e-7
C1 1 n3 6.724e-13
R3 n3 n4 25.06
L3 n3 n4 1.960e-8
R4 n4 2 5.500e-1
.ENDS BLM18BD102SN1
*----------------------------------------------------------------------*----------------------------------------------------------------------
* SPICE Model generated by Murata Manufacturing Co., Ltd.
* Copyright(C) Murata Manufacturing Co., Ltd.
* MURATA P/N : BLM18BD121SN1
* Property : Z@100MHz = 120[ohm]
*----------------------------------------------------------------------
* Applicable Conditions:
*   Frequency Range = 1MHz - 3GHz
*   Temperature = 25 degC
*   DC Bias Current = 0 A
*   Small Signal Operation
*----------------------------------------------------------------------
.SUBCKT BLM18BD121SN1 1 2
R1 1 n1 163.3
C2 n1 n2 4.126e-11
L1 1 n2 1.180e-7
R2 n2 n3 164.0
L2 n2 n3 1.891e-8
C1 1 n3 7.111e-13
R3 n3 n4 41.26
L3 n3 n4 7.981e-8
R4 n4 2 2.100e-1
.ENDS BLM18BD121SN1
*----------------------------------------------------------------------*----------------------------------------------------------------------
* SPICE Model generated by Murata Manufacturing Co., Ltd.
* Copyright(C) Murata Manufacturing Co., Ltd.
* MURATA P/N : BLM18BD151SN1
* Property : Z@100MHz = 150[ohm]
*----------------------------------------------------------------------
* Applicable Conditions:
*   Frequency Range = 1MHz - 3GHz
*   Temperature = 25 degC
*   DC Bias Current = 0 A
*   Small Signal Operation
*----------------------------------------------------------------------
.SUBCKT BLM18BD151SN1 1 2
R1 1 n1 160.9
C2 n1 n2 3.306e-11
L1 1 n2 1.722e-7
R2 n2 n3 261.9
L2 n2 n3 7.554e-8
C1 1 n3 5.313e-13
R3 n3 n4 47.58
L3 n3 n4 2.673e-9
R4 n4 2 2.300e-1
.ENDS BLM18BD151SN1
*----------------------------------------------------------------------*----------------------------------------------------------------------
* SPICE Model generated by Murata Manufacturing Co., Ltd.
* Copyright(C) Murata Manufacturing Co., Ltd.
* MURATA P/N : BLM18BD152SN1
* Property : Z@100MHz = 1500[ohm]
*----------------------------------------------------------------------
* Applicable Conditions:
*   Frequency Range = 1MHz - 3GHz
*   Temperature = 25 degC
*   DC Bias Current = 0 A
*   Small Signal Operation
*----------------------------------------------------------------------
.SUBCKT BLM18BD152SN1 1 2
R1 1 n1 410.0
C2 n1 n2 9.289e-12
L1 1 n2 6.341e-7
R2 n2 n3 2018
L2 n2 n3 9.841e-7
C1 1 n3 8.971e-13
R3 n3 n4 14.10
L3 n3 n4 1.584e-8
R4 n4 2 6.500e-1
.ENDS BLM18BD152SN1
*----------------------------------------------------------------------*----------------------------------------------------------------------
* SPICE Model generated by Murata Manufacturing Co., Ltd.
* Copyright(C) Murata Manufacturing Co., Ltd.
* MURATA P/N : BLM18BD182SN1
* Property : Z@100MHz = 1800[ohm]
*----------------------------------------------------------------------
* Applicable Conditions:
*   Frequency Range = 1MHz - 3GHz
*   Temperature = 25 degC
*   DC Bias Current = 0 A
*   Small Signal Operation
*----------------------------------------------------------------------
.SUBCKT BLM18BD182SN1 1 2
R1 1 n1 587.7
C2 n1 n2 6.798e-12
L1 1 n2 7.545e-7
R2 n2 n3 2020
L2 n2 n3 9.016e-7
C1 1 n3 1.035e-12
R3 n3 n4 13.28
L3 n3 n4 1.640e-8
R4 n4 2 8.000e-1
.ENDS BLM18BD182SN1
*----------------------------------------------------------------------*----------------------------------------------------------------------
* SPICE Model generated by Murata Manufacturing Co., Ltd.
* Copyright(C) Murata Manufacturing Co., Ltd.
* MURATA P/N : BLM18BD221SN1
* Property : Z@100MHz = 220[ohm]
*----------------------------------------------------------------------
* Applicable Conditions:
*   Frequency Range = 1MHz - 3GHz
*   Temperature = 25 degC
*   DC Bias Current = 0 A
*   Small Signal Operation
*----------------------------------------------------------------------
.SUBCKT BLM18BD221SN1 1 2
R1 1 n1 123.5
C2 n1 n2 4.543e-11
L1 1 n2 1.992e-7
R2 n2 n3 406.4
L2 n2 n3 2.011e-7
C1 1 n3 5.322e-13
R3 n3 n4 38.82
L3 n3 n4 2.108e-9
R4 n4 2 2.700e-1
.ENDS BLM18BD221SN1
*----------------------------------------------------------------------*----------------------------------------------------------------------
* SPICE Model generated by Murata Manufacturing Co., Ltd.
* Copyright(C) Murata Manufacturing Co., Ltd.
* MURATA P/N : BLM18BD222SN1
* Property : Z@100MHz = 2200[ohm]
*----------------------------------------------------------------------
* Applicable Conditions:
*   Frequency Range = 1MHz - 3GHz
*   Temperature = 25 degC
*   DC Bias Current = 0 A
*   Small Signal Operation
*----------------------------------------------------------------------
.SUBCKT BLM18BD222SN1 1 2
R1 1 n1 843.4
C2 n1 n2 4.205e-12
L1 1 n2 8.173e-7
R2 n2 n3 2172
L2 n2 n3 6.768e-7
C1 1 n3 1.289e-12
R3 n3 n4 10.96
L3 n3 n4 1.227e-8
R4 n4 2 9.000e-1
.ENDS BLM18BD222SN1
*----------------------------------------------------------------------*----------------------------------------------------------------------
* SPICE Model generated by Murata Manufacturing Co., Ltd.
* Copyright(C) Murata Manufacturing Co., Ltd.
* MURATA P/N : BLM18BD252SN1
* Property : Z@100MHz = 2500[ohm]
*----------------------------------------------------------------------
* Applicable Conditions:
*   Frequency Range = 1MHz - 3GHz
*   Temperature = 25 degC
*   DC Bias Current = 0 A
*   Small Signal Operation
*----------------------------------------------------------------------
.SUBCKT BLM18BD252SN1 1 2
R1 1 n1 692.4
C2 n1 n2 6.095e-12
L1 1 n2 1.123e-6
R2 n2 n3 2653
L2 n2 n3 1.251e-6
C1 1 n3 1.078e-12
R3 n3 n4 12.67
L3 n3 n4 1.770e-8
R4 n4 2 9.000e-1
.ENDS BLM18BD252SN1
*----------------------------------------------------------------------*----------------------------------------------------------------------
* SPICE Model generated by Murata Manufacturing Co., Ltd.
* Copyright(C) Murata Manufacturing Co., Ltd.
* MURATA P/N : BLM18BD331SN1
* Property : Z@100MHz = 330[ohm]
*----------------------------------------------------------------------
* Applicable Conditions:
*   Frequency Range = 1MHz - 3GHz
*   Temperature = 25 degC
*   DC Bias Current = 0 A
*   Small Signal Operation
*----------------------------------------------------------------------
.SUBCKT BLM18BD331SN1 1 2
R1 1 n1 203.8
C2 n1 n2 2.353e-11
L1 1 n2 2.701e-7
R2 n2 n3 598.2
L2 n2 n3 2.449e-7
C1 1 n3 5.506e-13
R3 n3 n4 37.37
L3 n3 n4 3.279e-9
R4 n4 2 3.100e-1
.ENDS BLM18BD331SN1
*----------------------------------------------------------------------*----------------------------------------------------------------------
* SPICE Model generated by Murata Manufacturing Co., Ltd.
* Copyright(C) Murata Manufacturing Co., Ltd.
* MURATA P/N : BLM18BD421SN1
* Property : Z@100MHz = 420[ohm]
*----------------------------------------------------------------------
* Applicable Conditions:
*   Frequency Range = 1MHz - 3GHz
*   Temperature = 25 degC
*   DC Bias Current = 0 A
*   Small Signal Operation
*----------------------------------------------------------------------
.SUBCKT BLM18BD421SN1 1 2
R1 1 n1 175.3
C2 n1 n2 2.560e-11
L1 1 n2 2.766e-7
R2 n2 n3 773.1
L2 n2 n3 3.990e-7
C1 1 n3 5.948e-13
R3 n3 n4 29.12
L3 n3 n4 4.412e-9
R4 n4 2 3.500e-1
.ENDS BLM18BD421SN1
*----------------------------------------------------------------------*----------------------------------------------------------------------
* SPICE Model generated by Murata Manufacturing Co., Ltd.
* Copyright(C) Murata Manufacturing Co., Ltd.
* MURATA P/N : BLM18BD470SN1
* Property : Z@100MHz = 47[ohm]
*----------------------------------------------------------------------
* Applicable Conditions:
*   Frequency Range = 1MHz - 3GHz
*   Temperature = 25 degC
*   DC Bias Current = 0 A
*   Small Signal Operation
*----------------------------------------------------------------------
.SUBCKT BLM18BD470SN1 1 2
R1 1 n1 66.66
C2 n1 n2 1.103e-10
L1 1 n2 6.722e-8
R2 n2 n3 80.03
L2 n2 n3 1.757e-8
C1 1 n3 4.091e-13
R3 n3 n4 418.3
L3 n3 n4 1.284e-9
R4 n4 2 1.500e-1
.ENDS BLM18BD470SN1
*----------------------------------------------------------------------*----------------------------------------------------------------------
* SPICE Model generated by Murata Manufacturing Co., Ltd.
* Copyright(C) Murata Manufacturing Co., Ltd.
* MURATA P/N : BLM18BD471SN1
* Property : Z@100MHz = 470[ohm]
*----------------------------------------------------------------------
* Applicable Conditions:
*   Frequency Range = 1MHz - 3GHz
*   Temperature = 25 degC
*   DC Bias Current = 0 A
*   Small Signal Operation
*----------------------------------------------------------------------
.SUBCKT BLM18BD471SN1 1 2
R1 1 n1 185.5
C2 n1 n2 2.658e-11
L1 1 n2 3.485e-7
R2 n2 n3 872.7
L2 n2 n3 4.667e-7
C1 1 n3 5.386e-13
R3 n3 n4 26.82
L3 n3 n4 3.543e-9
R4 n4 2 4.000e-1
.ENDS BLM18BD471SN1
*----------------------------------------------------------------------*----------------------------------------------------------------------
* SPICE Model generated by Murata Manufacturing Co., Ltd.
* Copyright(C) Murata Manufacturing Co., Ltd.
* MURATA P/N : BLM18BD601SN1
* Property : Z@100MHz = 600[ohm]
*----------------------------------------------------------------------
* Applicable Conditions: