* Generated by darter.py
* IBIS Ver: 3.2
* File Name: s25fl032p_n_i_33_r1.ibs
* File Rev: 1.0
* Date: 02/20/2014
* Source:
* Spansion IBIS team
* Email: ibis.team@spansion.com
*
* Notes:
* Generated IBIS models from SPICE simulations.
* Vio=3.3V, temp range is -40C to 85C.
*
* Disclaimer: THE MODEL LIBRARIES ARE PROVIDED AS IS.
* Copyright:
* (C) COPYRIGHT 2014
* SPANSION LLC
* ALL RIGHTS RESERVED.
* ************************************************************************
* Component S25FL032P in 8 pin SOC package
* ************************************************************************
*
.lib S25FL032P
.subckt S25FL032P pad gnd die spec=0
* Manufacturer: SPANSION LLC
.func modv(typ, minv, maxv) {ternary_fcn(spec > 0, maxv, ternary_fcn(spec < 0, minv, typ))}
.param R_pkg={modv(0.08998, 0.08152, 0.09569)}
.param L_pkg={modv(1.8e-09, 1.9e-09, 1.69e-09)}
.param C_pkg={modv(3.2e-13, 3.4e-13, 2.9e-13)}
* gnetlist -g spice-sdb -o ibis_pkg.inc ibis_pkg.sch
*********************************************************
* Spice file generated by gnetlist                      *
* spice-sdb version 4.28.2007 by SDB --                 *
* provides advanced spice netlisting capability.        *
* Documentation at http://www.brorson.com/gEDA/SPICE/   *
*********************************************************
*==============  Begin SPICE netlist of main design ============
C_pkg 0 pad {C_pkg}  
R_pkg 1 pad {R_pkg}  
L_pkg die 1 {L_pkg} 

.ends S25FL032P
.subckt S25FL032P_1 pad gnd die spec=0
* CS#
.param R_pkg=0.08152
.param C_pkg=2.9e-13
.param L_pkg=1.69e-09
.func modv(typ, minv, maxv) {ternary_fcn(spec > 0, maxv, ternary_fcn(spec < 0, minv, typ))}
* gnetlist -g spice-sdb -o ibis_pkg.inc ibis_pkg.sch
*********************************************************
* Spice file generated by gnetlist                      *
* spice-sdb version 4.28.2007 by SDB --                 *
* provides advanced spice netlisting capability.        *
* Documentation at http://www.brorson.com/gEDA/SPICE/   *
*********************************************************
*==============  Begin SPICE netlist of main design ============
C_pkg 0 pad {C_pkg}  
R_pkg 1 pad {R_pkg}  
L_pkg die 1 {L_pkg} 

.ends S25FL032P_1
.subckt S25FL032P_CSc pad gnd die spec=0
* pin 1
.param R_pkg=0.08152
.param C_pkg=2.9e-13
.param L_pkg=1.69e-09
.func modv(typ, minv, maxv) {ternary_fcn(spec > 0, maxv, ternary_fcn(spec < 0, minv, typ))}
* gnetlist -g spice-sdb -o ibis_pkg.inc ibis_pkg.sch
*********************************************************
* Spice file generated by gnetlist                      *
* spice-sdb version 4.28.2007 by SDB --                 *
* provides advanced spice netlisting capability.        *
* Documentation at http://www.brorson.com/gEDA/SPICE/   *
*********************************************************
*==============  Begin SPICE netlist of main design ============
C_pkg 0 pad {C_pkg}  
R_pkg 1 pad {R_pkg}  
L_pkg die 1 {L_pkg} 

.ends S25FL032P_CSc
.subckt S25FL032P_2 pad gnd die spec=0
* SO/IO1
.param R_pkg=0.09248
.param C_pkg=3.3e-13
.param L_pkg=1.82e-09
.func modv(typ, minv, maxv) {ternary_fcn(spec > 0, maxv, ternary_fcn(spec < 0, minv, typ))}
* gnetlist -g spice-sdb -o ibis_pkg.inc ibis_pkg.sch
*********************************************************
* Spice file generated by gnetlist                      *
* spice-sdb version 4.28.2007 by SDB --                 *
* provides advanced spice netlisting capability.        *
* Documentation at http://www.brorson.com/gEDA/SPICE/   *
*********************************************************
*==============  Begin SPICE netlist of main design ============
C_pkg 0 pad {C_pkg}  
R_pkg 1 pad {R_pkg}  
L_pkg die 1 {L_pkg} 

.ends S25FL032P_2
.subckt S25FL032P_SO/IO1 pad gnd die spec=0
* pin 2
.param R_pkg=0.09248
.param C_pkg=3.3e-13
.param L_pkg=1.82e-09
.func modv(typ, minv, maxv) {ternary_fcn(spec > 0, maxv, ternary_fcn(spec < 0, minv, typ))}
* gnetlist -g spice-sdb -o ibis_pkg.inc ibis_pkg.sch
*********************************************************
* Spice file generated by gnetlist                      *
* spice-sdb version 4.28.2007 by SDB --                 *
* provides advanced spice netlisting capability.        *
* Documentation at http://www.brorson.com/gEDA/SPICE/   *
*********************************************************
*==============  Begin SPICE netlist of main design ============
C_pkg 0 pad {C_pkg}  
R_pkg 1 pad {R_pkg}  
L_pkg die 1 {L_pkg} 

.ends S25FL032P_SO/IO1
.subckt S25FL032P_3 pad gnd die spec=0
* W#/ACC/IO2
.param R_pkg=0.09569
.param C_pkg=3.4e-13
.param L_pkg=1.89e-09
.func modv(typ, minv, maxv) {ternary_fcn(spec > 0, maxv, ternary_fcn(spec < 0, minv, typ))}
* gnetlist -g spice-sdb -o ibis_pkg.inc ibis_pkg.sch
*********************************************************
* Spice file generated by gnetlist                      *
* spice-sdb version 4.28.2007 by SDB --                 *
* provides advanced spice netlisting capability.        *
* Documentation at http://www.brorson.com/gEDA/SPICE/   *
*********************************************************
*==============  Begin SPICE netlist of main design ============
C_pkg 0 pad {C_pkg}  
R_pkg 1 pad {R_pkg}  
L_pkg die 1 {L_pkg} 

.ends S25FL032P_3
.subckt S25FL032P_Wc/ACC/IO2 pad gnd die spec=0
* pin 3
.param R_pkg=0.09569
.param C_pkg=3.4e-13
.param L_pkg=1.89e-09
.func modv(typ, minv, maxv) {ternary_fcn(spec > 0, maxv, ternary_fcn(spec < 0, minv, typ))}
* gnetlist -g spice-sdb -o ibis_pkg.inc ibis_pkg.sch
*********************************************************
* Spice file generated by gnetlist                      *
* spice-sdb version 4.28.2007 by SDB --                 *
* provides advanced spice netlisting capability.        *
* Documentation at http://www.brorson.com/gEDA/SPICE/   *
*********************************************************
*==============  Begin SPICE netlist of main design ============
C_pkg 0 pad {C_pkg}  
R_pkg 1 pad {R_pkg}  
L_pkg die 1 {L_pkg} 

.ends S25FL032P_Wc/ACC/IO2
.subckt S25FL032P_4 pad gnd die spec=0
* GND
.param R_pkg={modv(0.08998, 0.08152, 0.09569)}
.param C_pkg={modv(3.2e-13, 2.9e-13, 3.4e-13)}
.param L_pkg={modv(1.8e-09, 1.69e-09, 1.9e-09)}
.func modv(typ, minv, maxv) {ternary_fcn(spec > 0, maxv, ternary_fcn(spec < 0, minv, typ))}
* gnetlist -g spice-sdb -o ibis_pkg.inc ibis_pkg.sch
*********************************************************
* Spice file generated by gnetlist                      *
* spice-sdb version 4.28.2007 by SDB --                 *
* provides advanced spice netlisting capability.        *
* Documentation at http://www.brorson.com/gEDA/SPICE/   *
*********************************************************
*==============  Begin SPICE netlist of main design ============
C_pkg 0 pad {C_pkg}  
R_pkg 1 pad {R_pkg}  
L_pkg die 1 {L_pkg} 

.ends S25FL032P_4
.subckt S25FL032P_GND pad gnd die spec=0
* pin 4
.param R_pkg={modv(0.08998, 0.08152, 0.09569)}
.param C_pkg={modv(3.2e-13, 2.9e-13, 3.4e-13)}
.param L_pkg={modv(1.8e-09, 1.69e-09, 1.9e-09)}
.func modv(typ, minv, maxv) {ternary_fcn(spec > 0, maxv, ternary_fcn(spec < 0, minv, typ))}
* gnetlist -g spice-sdb -o ibis_pkg.inc ibis_pkg.sch
*********************************************************
* Spice file generated by gnetlist                      *
* spice-sdb version 4.28.2007 by SDB --                 *
* provides advanced spice netlisting capability.        *
* Documentation at http://www.brorson.com/gEDA/SPICE/   *
*********************************************************
*==============  Begin SPICE netlist of main design ============
C_pkg 0 pad {C_pkg}  
R_pkg 1 pad {R_pkg}  
L_pkg die 1 {L_pkg} 

.ends S25FL032P_GND
.subckt S25FL032P_5 pad gnd die spec=0
* SI/IO0
.param R_pkg=0.08457
.param C_pkg=3.1e-13
.param L_pkg=1.73e-09
.func modv(typ, minv, maxv) {ternary_fcn(spec > 0, maxv, ternary_fcn(spec < 0, minv, typ))}
* gnetlist -g spice-sdb -o ibis_pkg.inc ibis_pkg.sch
*********************************************************
* Spice file generated by gnetlist                      *
* spice-sdb version 4.28.2007 by SDB --                 *
* provides advanced spice netlisting capability.        *
* Documentation at http://www.brorson.com/gEDA/SPICE/   *
*********************************************************
*==============  Begin SPICE netlist of main design ============
C_pkg 0 pad {C_pkg}  
R_pkg 1 pad {R_pkg}  
L_pkg die 1 {L_pkg} 

.ends S25FL032P_5
.subckt S25FL032P_SI/IO0 pad gnd die spec=0
* pin 5
.param R_pkg=0.08457
.param C_pkg=3.1e-13
.param L_pkg=1.73e-09
.func modv(typ, minv, maxv) {ternary_fcn(spec > 0, maxv, ternary_fcn(spec < 0, minv, typ))}
* gnetlist -g spice-sdb -o ibis_pkg.inc ibis_pkg.sch
*********************************************************
* Spice file generated by gnetlist                      *
* spice-sdb version 4.28.2007 by SDB --                 *
* provides advanced spice netlisting capability.        *
* Documentation at http://www.brorson.com/gEDA/SPICE/   *
*********************************************************
*==============  Begin SPICE netlist of main design ============
C_pkg 0 pad {C_pkg}  
R_pkg 1 pad {R_pkg}  
L_pkg die 1 {L_pkg} 

.ends S25FL032P_SI/IO0
.subckt S25FL032P_6 pad gnd die spec=0
* SCK
.param R_pkg=0.09088
.param C_pkg=3.3e-13
.param L_pkg=1.78e-09
.func modv(typ, minv, maxv) {ternary_fcn(spec > 0, maxv, ternary_fcn(spec < 0, minv, typ))}
* gnetlist -g spice-sdb -o ibis_pkg.inc ibis_pkg.sch
*********************************************************
* Spice file generated by gnetlist                      *
* spice-sdb version 4.28.2007 by SDB --                 *
* provides advanced spice netlisting capability.        *
* Documentation at http://www.brorson.com/gEDA/SPICE/   *
*********************************************************
*==============  Begin SPICE netlist of main design ============
C_pkg 0 pad {C_pkg}  
R_pkg 1 pad {R_pkg}  
L_pkg die 1 {L_pkg} 

.ends S25FL032P_6
.subckt S25FL032P_SCK pad gnd die spec=0
* pin 6
.param R_pkg=0.09088
.param C_pkg=3.3e-13
.param L_pkg=1.78e-09
.func modv(typ, minv, maxv) {ternary_fcn(spec > 0, maxv, ternary_fcn(spec < 0, minv, typ))}
* gnetlist -g spice-sdb -o ibis_pkg.inc ibis_pkg.sch
*********************************************************
* Spice file generated by gnetlist                      *
* spice-sdb version 4.28.2007 by SDB --                 *
* provides advanced spice netlisting capability.        *
* Documentation at http://www.brorson.com/gEDA/SPICE/   *
*********************************************************
*==============  Begin SPICE netlist of main design ============
C_pkg 0 pad {C_pkg}  
R_pkg 1 pad {R_pkg}  
L_pkg die 1 {L_pkg} 

.ends S25FL032P_SCK
.subckt S25FL032P_7 pad gnd die spec=0
* HOLD#/IO3
.param R_pkg=0.09475
.param C_pkg=3.3e-13
.param L_pkg=1.9e-09
.func modv(typ, minv, maxv) {ternary_fcn(spec > 0, maxv, ternary_fcn(spec < 0, minv, typ))}
* gnetlist -g spice-sdb -o ibis_pkg.inc ibis_pkg.sch
*********************************************************
* Spice file generated by gnetlist                      *
* spice-sdb version 4.28.2007 by SDB --                 *
* provides advanced spice netlisting capability.        *
* Documentation at http://www.brorson.com/gEDA/SPICE/   *
*********************************************************
*==============  Begin SPICE netlist of main design ============
C_pkg 0 pad {C_pkg}  
R_pkg 1 pad {R_pkg}  
L_pkg die 1 {L_pkg} 

.ends S25FL032P_7
.subckt S25FL032P_HOLDc/IO3 pad gnd die spec=0
* pin 7
.param R_pkg=0.09475
.param C_pkg=3.3e-13
.param L_pkg=1.9e-09
.func modv(typ, minv, maxv) {ternary_fcn(spec > 0, maxv, ternary_fcn(spec < 0, minv, typ))}
* gnetlist -g spice-sdb -o ibis_pkg.inc ibis_pkg.sch
*********************************************************
* Spice file generated by gnetlist                      *
* spice-sdb version 4.28.2007 by SDB --                 *
* provides advanced spice netlisting capability.        *
* Documentation at http://www.brorson.com/gEDA/SPICE/   *
*********************************************************
*==============  Begin SPICE netlist of main design ============
C_pkg 0 pad {C_pkg}  
R_pkg 1 pad {R_pkg}  
L_pkg die 1 {L_pkg} 

.ends S25FL032P_HOLDc/IO3
.subckt S25FL032P_8 pad gnd die spec=0
* VCC
.param R_pkg={modv(0.08998, 0.08152, 0.09569)}
.param C_pkg={modv(3.2e-13, 2.9e-13, 3.4e-13)}
.param L_pkg={modv(1.8e-09, 1.69e-09, 1.9e-09)}
.func modv(typ, minv, maxv) {ternary_fcn(spec > 0, maxv, ternary_fcn(spec < 0, minv, typ))}
* gnetlist -g spice-sdb -o ibis_pkg.inc ibis_pkg.sch
*********************************************************
* Spice file generated by gnetlist                      *
* spice-sdb version 4.28.2007 by SDB --                 *
* provides advanced spice netlisting capability.        *
* Documentation at http://www.brorson.com/gEDA/SPICE/   *
*********************************************************
*==============  Begin SPICE netlist of main design ============
C_pkg 0 pad {C_pkg}  
R_pkg 1 pad {R_pkg}  
L_pkg die 1 {L_pkg} 

.ends S25FL032P_8
.subckt S25FL032P_VCC pad gnd die spec=0
* pin 8
.param R_pkg={modv(0.08998, 0.08152, 0.09569)}
.param C_pkg={modv(3.2e-13, 2.9e-13, 3.4e-13)}
.param L_pkg={modv(1.8e-09, 1.69e-09, 1.9e-09)}
.func modv(typ, minv, maxv) {ternary_fcn(spec > 0, maxv, ternary_fcn(spec < 0, minv, typ))}
* gnetlist -g spice-sdb -o ibis_pkg.inc ibis_pkg.sch
*********************************************************
* Spice file generated by gnetlist                      *
* spice-sdb version 4.28.2007 by SDB --                 *
* provides advanced spice netlisting capability.        *
* Documentation at http://www.brorson.com/gEDA/SPICE/   *
*********************************************************
*==============  Begin SPICE netlist of main design ============
C_pkg 0 pad {C_pkg}  
R_pkg 1 pad {R_pkg}  
L_pkg die 1 {L_pkg} 

.ends S25FL032P_VCC
.endl
.lib F_CSB
* type - input
.subckt F_CSB A_signal A_signal_neg A_pcref A_gcref A_puref A_pdref D_enable D_drive D_receive A_extref spec=0 start_on=1
.model pullup d_pullup(load=0)
.model pulldown d_pulldown(load=0)
A_en D_enable pulldown
.func modv(typ, minv, maxv) {ternary_fcn(spec > 0, maxv, ternary_fcn(spec < 0, minv, typ))}
.param vth=0
.param Vinh_ac=2.31
.param Vinh_dc=2.31
.param Vinl_ac=0.99
.param Vinl_dc=0.99
.param Tslew_ac=1
* gnetlist -g spice-sdb -o ibis_model_spec.inc ibis_model_spec.sch
*********************************************************
* Spice file generated by gnetlist                      *
* spice-sdb version 4.28.2007 by SDB --                 *
* provides advanced spice netlisting capability.        *
* Documentation at http://www.brorson.com/gEDA/SPICE/   *
*********************************************************
*==============  Begin SPICE netlist of main design ============
B_violation violation 0 V={V(violation_d_overshoot) +
+    V(violation_s_overshoot) +
+    V(violation_d_overshoot_ampl) +
+    V(violation_d_overshoot_area)}

R_violation_d_overshoot 0 violation_d_overshoot 0
R_violation_d_overshoot_ampl 0 violation_d_overshoot_ampl 0
R_violation_s_overshoot 0 violation_s_overshoot 0
R_violation_d_overshoot_area 0 violation_d_overshoot_area 0
.param Threshold_sensitivity=1
.param Vref_supply=0
.param C_comp_power_clamp={modv(3.02e-12, 3.195e-12, 2.775e-12)}
.param C_comp_gnd_clamp={modv(3.02e-12, 3.195e-12, 2.775e-12)}
.param Rgnd=1e+18
.param Rpower=1e+18
.param Rac=1e+18
.param Cac=0
* gnetlist -g spice-sdb -o ibis_buffer.inc ibis_buffer.sch
*********************************************************
* Spice file generated by gnetlist                      *
* spice-sdb version 4.28.2007 by SDB --                 *
* provides advanced spice netlisting capability.        *
* Documentation at http://www.brorson.com/gEDA/SPICE/   *
*********************************************************
*==============  Begin SPICE netlist of main design ============
B_meas meas 0 V=V(A_signal, A_gcref)
R_pad_gnd_ref 0 A_signal 1e12  
B_gc A_signal A_gcref I=modv(
+	pwl(V(A_signal, A_gcref) 
+    ,-4.3,-4.5253
+    ,-3.3,-4.5253
+    ,-3.23,-4.3889
+    ,-3.16,-4.2525
+    ,-3.09,-4.116
+    ,-3.02,-3.9796
+    ,-2.95,-3.8432
+    ,-2.88,-3.7067
+    ,-2.81,-3.5703
+    ,-2.74,-3.4339
+    ,-2.67,-3.2975
+    ,-2.6,-3.161
+    ,-2.53,-3.0246
+    ,-2.46,-2.8882
+    ,-2.39,-2.7517
+    ,-2.32,-2.6153
+    ,-2.25,-2.4789
+    ,-2.18,-2.3426
+    ,-2.11,-2.2066
+    ,-2.04,-2.0708
+    ,-1.97,-1.9353
+    ,-1.9,-1.8001
+    ,-1.83,-1.6652
+    ,-1.76,-1.5308
+    ,-1.69,-1.397
+    ,-1.62,-1.2637
+    ,-1.55,-1.1311
+    ,-1.48,-0.9994
+    ,-1.41,-0.8688
+    ,-1.34,-0.7397
+    ,-1.27,-0.6126
+    ,-1.2,-0.4881
+    ,-1.13,-0.3676
+    ,-1.06,-0.2534
+    ,-0.99,-0.1504
+    ,-0.92,-0.068349
+    ,-0.85,-0.021432
+    ,-0.78,-0.0058368
+    ,-0.71,-0.0019581
+    ,-0.64,-0.0008172
+    ,-0.57,-0.0003448
+    ,-0.5,-0.0001326
+    ,-0.43,-4.6915e-05
+    ,-0.36,-1.5598e-05
+    ,-0.29,-4.6816e-06
+    ,-0.22,-1.1662e-06
+    ,-0.15,-2.272e-07
+    ,-0.08,-3.5116e-08
+    ,-0.01,-3.8935e-09
+    ,0.06,4.883e-10
+    ,0.13,9.737e-10
+    ,0.2,1.0932e-09
+    ,0.27,1.1478e-09
+    ,0.34,1.1829e-09
+    ,0.41,1.2103e-09
+    ,0.48,1.2342e-09
+    ,0.55,1.2564e-09
+    ,0.62,1.2779e-09
+    ,0.69,1.299e-09
+    ,0.76,1.32e-09
+    ,0.83,1.3409e-09
+    ,0.9,1.3617e-09
+    ,0.97,1.3826e-09
+    ,1.04,1.4035e-09
+    ,1.11,1.4244e-09
+    ,1.18,1.4454e-09
+    ,1.25,1.4664e-09
+    ,1.32,1.4874e-09
+    ,1.39,1.5084e-09
+    ,1.46,1.5295e-09
+    ,1.53,1.5507e-09
+    ,1.6,1.5718e-09
+    ,1.67,1.593e-09
+    ,1.74,1.6143e-09
+    ,1.81,1.6356e-09
+    ,1.88,1.6569e-09
+    ,1.95,1.6782e-09
+    ,2.02,1.6996e-09
+    ,2.09,1.7211e-09
+    ,2.16,1.7426e-09
+    ,2.23,1.764e-09
+    ,2.3,1.7852e-09
+    ,2.37,1.8046e-09
+    ,2.44,1.8165e-09
+    ,2.51,1.8197e-09
+    ,2.58,1.8215e-09
+    ,2.65,1.8228e-09
+    ,2.72,1.824e-09
+    ,2.79,1.8251e-09
+    ,2.86,1.8263e-09
+    ,2.93,1.8274e-09
+    ,3.0,1.8286e-09
+    ,3.07,1.8302e-09
+    ,3.14,1.8336e-09
+    ,3.21,1.8428e-09
+    ,3.3,1.8597e-09
+    ,6.6,1.8597e-09
+    ,7.6,1.8597e-09),
+	pwl(V(A_signal, A_gcref) 
+    ,-4.3,-4.6232
+    ,-3.3,-4.6232
+    ,-3.23,-4.4874
+    ,-3.16,-4.3517
+    ,-3.09,-4.216
+    ,-3.02,-4.0803
+    ,-2.95,-3.9445
+    ,-2.88,-3.8088
+    ,-2.81,-3.6731
+    ,-2.74,-3.5374
+    ,-2.67,-3.4016
+    ,-2.6,-3.2659
+    ,-2.53,-3.1302
+    ,-2.46,-2.9945
+    ,-2.39,-2.8587
+    ,-2.32,-2.723
+    ,-2.25,-2.5873
+    ,-2.18,-2.4516
+    ,-2.11,-2.3161
+    ,-2.04,-2.1809
+    ,-1.97,-2.0459
+    ,-1.9,-1.9113
+    ,-1.83,-1.7771
+    ,-1.76,-1.6434
+    ,-1.69,-1.5102
+    ,-1.62,-1.3775
+    ,-1.55,-1.2456
+    ,-1.48,-1.1145
+    ,-1.41,-0.9845
+    ,-1.34,-0.8559
+    ,-1.27,-0.7289
+    ,-1.2,-0.6042
+    ,-1.13,-0.4825
+    ,-1.06,-0.3654
+    ,-0.99,-0.2551
+    ,-0.92,-0.1563
+    ,-0.85,-0.077221
+    ,-0.78,-0.02836
+    ,-0.71,-0.0084175
+    ,-0.64,-0.0023052
+    ,-0.57,-0.0005984
+    ,-0.5,-0.0001574
+    ,-0.43,-4.3727e-05
+    ,-0.36,-1.2618e-05
+    ,-0.29,-3.5113e-06
+    ,-0.22,-8.712e-07
+    ,-0.15,-1.863e-07
+    ,-0.08,-3.447e-08
+    ,-0.01,-4.4967e-09
+    ,0.06,9.702e-10
+    ,0.13,1.6201e-09
+    ,0.2,1.7802e-09
+    ,0.27,1.8464e-09
+    ,0.34,1.8858e-09
+    ,0.41,1.9151e-09
+    ,0.48,1.94e-09
+    ,0.55,1.9627e-09
+    ,0.62,1.9845e-09
+    ,0.69,2.0058e-09
+    ,0.76,2.0269e-09
+    ,0.83,2.0479e-09
+    ,0.9,2.0688e-09
+    ,0.97,2.0897e-09
+    ,1.04,2.1106e-09
+    ,1.11,2.1315e-09
+    ,1.18,2.1524e-09
+    ,1.25,2.1733e-09
+    ,1.32,2.1943e-09
+    ,1.39,2.2153e-09
+    ,1.46,2.2363e-09
+    ,1.53,2.2573e-09
+    ,1.6,2.2783e-09
+    ,1.67,2.2994e-09
+    ,1.74,2.3205e-09
+    ,1.81,2.3416e-09
+    ,1.88,2.3625e-09
+    ,1.95,2.3829e-09
+    ,2.02,2.4001e-09
+    ,2.09,2.4089e-09
+    ,2.16,2.4113e-09
+    ,2.23,2.4126e-09
+    ,2.3,2.4137e-09
+    ,2.37,2.4148e-09
+    ,2.44,2.4159e-09
+    ,2.51,2.417e-09
+    ,2.58,2.4182e-09
+    ,2.65,2.4197e-09
+    ,2.72,2.4225e-09
+    ,2.79,2.4295e-09
+    ,2.86,2.4466e-09
+    ,2.93,2.473e-09
+    ,3.0,2.4931e-09
+    ,3.07,2.5024e-09
+    ,3.14,2.5065e-09
+    ,3.21,2.5091e-09
+    ,3.3,2.5123e-09
+    ,6.6,2.5123e-09
+    ,7.6,2.5123e-09),
+	pwl(V(A_signal, A_gcref) 
+    ,-4.3,-4.4289
+    ,-3.3,-4.4289
+    ,-3.23,-4.2917
+    ,-3.16,-4.1545
+    ,-3.09,-4.0173
+    ,-3.02,-3.8801
+    ,-2.95,-3.7429
+    ,-2.88,-3.6057
+    ,-2.81,-3.4685
+    ,-2.74,-3.3313
+    ,-2.67,-3.1941
+    ,-2.6,-3.0569
+    ,-2.53,-2.9197
+    ,-2.46,-2.7825
+    ,-2.39,-2.6453
+    ,-2.32,-2.5081
+    ,-2.25,-2.371
+    ,-2.18,-2.234
+    ,-2.11,-2.0973
+    ,-2.04,-1.9608
+    ,-1.97,-1.8245
+    ,-1.9,-1.6885
+    ,-1.83,-1.5529
+    ,-1.76,-1.4177
+    ,-1.69,-1.2829
+    ,-1.62,-1.1487
+    ,-1.55,-1.0152
+    ,-1.48,-0.8826
+    ,-1.41,-0.7511
+    ,-1.34,-0.6213
+    ,-1.27,-0.4936
+    ,-1.2,-0.3693
+    ,-1.13,-0.2505
+    ,-1.06,-0.1425
+    ,-0.99,-0.057343
+    ,-0.92,-0.015832
+    ,-0.85,-0.0066107
+    ,-0.78,-0.0041199
+    ,-0.71,-0.0025464
+    ,-0.64,-0.0013718
+    ,-0.57,-0.0006011
+    ,-0.5,-0.0002105
+    ,-0.43,-6.4179e-05
+    ,-0.36,-1.8758e-05
+    ,-0.29,-5.2434e-06
+    ,-0.22,-1.2818e-06
+    ,-0.15,-2.37e-07
+    ,-0.08,-2.9796e-08
+    ,-0.01,-2.4416e-09
+    ,0.06,2.2e-10
+    ,0.13,4.547e-10
+    ,0.2,5.163e-10
+    ,0.27,5.487e-10
+    ,0.34,5.714e-10
+    ,0.41,5.899e-10
+    ,0.48,6.066e-10
+    ,0.55,6.224e-10
+    ,0.62,6.379e-10
+    ,0.69,6.531e-10
+    ,0.76,6.684e-10
+    ,0.83,6.836e-10
+    ,0.9,6.989e-10
+    ,0.97,7.142e-10
+    ,1.04,7.295e-10
+    ,1.11,7.449e-10
+    ,1.18,7.603e-10
+    ,1.25,7.758e-10
+    ,1.32,7.913e-10
+    ,1.39,8.068e-10
+    ,1.46,8.224e-10
+    ,1.53,8.38e-10
+    ,1.6,8.537e-10
+    ,1.67,8.694e-10
+    ,1.74,8.852e-10
+    ,1.81,9.01e-10
+    ,1.88,9.169e-10
+    ,1.95,9.328e-10
+    ,2.02,9.487e-10
+    ,2.09,9.647e-10
+    ,2.16,9.808e-10
+    ,2.23,9.969e-10
+    ,2.3,1.013e-09
+    ,2.37,1.0292e-09
+    ,2.44,1.0455e-09
+    ,2.51,1.0617e-09
+    ,2.58,1.0781e-09
+    ,2.65,1.0944e-09
+    ,2.72,1.1106e-09
+    ,2.79,1.1256e-09
+    ,2.86,1.1342e-09
+    ,2.93,1.1366e-09
+    ,3.0,1.138e-09
+    ,3.07,1.1392e-09
+    ,3.14,1.1403e-09
+    ,3.21,1.1415e-09
+    ,3.3,1.1429e-09
+    ,6.6,1.1429e-09
+    ,7.6,1.1429e-09))
B_pc A_signal A_pcref I=modv(
+	pwl(V(A_pcref, A_signal) 
+    ,-4.28,1.8408e-05
+    ,-3.28,1.8408e-05
+    ,-3.24,1.8406e-05
+    ,-3.2,1.8404e-05
+    ,-3.16,1.8403e-05
+    ,-3.12,1.8401e-05
+    ,-3.08,1.8399e-05
+    ,-3.04,1.8398e-05
+    ,-3.0,1.8396e-05
+    ,-2.96,1.8393e-05
+    ,-2.92,1.839e-05
+    ,-2.88,1.8355e-05
+    ,-2.84,1.7869e-05
+    ,-2.8,1.5771e-05
+    ,-2.76,1.3644e-05
+    ,-2.72,1.1672e-05
+    ,-2.68,9.8947e-06
+    ,-2.64,8.3205e-06
+    ,-2.6,6.946e-06
+    ,-2.56,5.7608e-06
+    ,-2.52,4.7502e-06
+    ,-2.48,3.8971e-06
+    ,-2.44,3.1833e-06
+    ,-2.4,2.5908e-06
+    ,-2.36,2.1021e-06
+    ,-2.32,1.7013e-06
+    ,-2.28,1.3741e-06
+    ,-2.24,1.1078e-06
+    ,-2.2,8.917e-07
+    ,-2.16,7.168e-07
+    ,-2.12,5.754e-07
+    ,-2.08,4.612e-07
+    ,-2.04,3.691e-07
+    ,-2.0,2.949e-07
+    ,-1.96,2.352e-07
+    ,-1.92,1.872e-07
+    ,-1.88,1.487e-07
+    ,-1.84,1.178e-07
+    ,-1.8,9.3131e-08
+    ,-1.76,7.347e-08
+    ,-1.72,5.7847e-08
+    ,-1.68,4.5476e-08
+    ,-1.64,3.5718e-08
+    ,-1.6,2.805e-08
+    ,-1.56,2.205e-08
+    ,-1.52,1.7375e-08
+    ,-1.48,1.3746e-08
+    ,-1.44,1.0941e-08
+    ,-1.4,8.7811e-09
+    ,-1.36,7.1231e-09
+    ,-1.32,5.8547e-09
+    ,-1.28,4.8872e-09
+    ,-1.24,4.1511e-09
+    ,-1.2,3.5924e-09
+    ,-1.16,3.1692e-09
+    ,-1.12,2.8493e-09
+    ,-1.08,2.6077e-09
+    ,-1.04,2.4255e-09
+    ,-1.0,2.2883e-09
+    ,-0.96,2.185e-09
+    ,-0.92,2.1073e-09
+    ,-0.88,2.0489e-09
+    ,-0.84,2.005e-09
+    ,-0.8,1.972e-09
+    ,-0.76,1.9473e-09
+    ,-0.72,1.9287e-09
+    ,-0.68,1.9148e-09
+    ,-0.64,1.9045e-09
+    ,-0.6,1.8967e-09
+    ,-0.56,1.8909e-09
+    ,-0.52,1.8865e-09
+    ,-0.48,1.8831e-09
+    ,-0.44,1.8805e-09
+    ,-0.4,1.8783e-09
+    ,-0.36,1.8766e-09
+    ,-0.32,1.875e-09
+    ,-0.28,1.8737e-09
+    ,-0.24,1.8724e-09
+    ,-0.2,1.8712e-09
+    ,-0.16,1.8699e-09
+    ,-0.12,1.8686e-09
+    ,-0.08,1.8668e-09
+    ,-0.04,1.8642e-09
+    ,0.0,1.8597e-09
+    ,6.6,1.8597e-09
+    ,7.6,1.8597e-09),
+	pwl(V(A_pcref, A_signal) 
+    ,-4.28,7.8864e-06
+    ,-3.28,7.8864e-06
+    ,-3.24,7.8856e-06
+    ,-3.2,7.8845e-06
+    ,-3.16,7.883e-06
+    ,-3.12,7.8635e-06
+    ,-3.08,7.5925e-06
+    ,-3.04,6.6453e-06
+    ,-3.0,5.7342e-06
+    ,-2.96,4.9136e-06
+    ,-2.92,4.189e-06
+    ,-2.88,3.5565e-06
+    ,-2.84,3.0092e-06
+    ,-2.8,2.5386e-06
+    ,-2.76,2.1363e-06
+    ,-2.72,1.7939e-06
+    ,-2.68,1.5036e-06
+    ,-2.64,1.2582e-06
+    ,-2.6,1.0513e-06
+    ,-2.56,8.772e-07
+    ,-2.52,7.311e-07
+    ,-2.48,6.085e-07
+    ,-2.44,5.058e-07
+    ,-2.4,4.2e-07
+    ,-2.36,3.483e-07
+    ,-2.32,2.884e-07
+    ,-2.28,2.386e-07
+    ,-2.24,1.971e-07
+    ,-2.2,1.626e-07
+    ,-2.16,1.34e-07
+    ,-2.12,1.104e-07
+    ,-2.08,9.0786e-08
+    ,-2.04,7.4637e-08
+    ,-2.0,6.134e-08
+    ,-1.96,5.0412e-08
+    ,-1.92,4.145e-08
+    ,-1.88,3.4115e-08
+    ,-1.84,2.8123e-08
+    ,-1.8,2.3237e-08
+    ,-1.76,1.9261e-08
+    ,-1.72,1.6031e-08
+    ,-1.68,1.3411e-08
+    ,-1.64,1.1289e-08
+    ,-1.6,9.5736e-09
+    ,-1.56,8.1882e-09
+    ,-1.52,7.0707e-09
+    ,-1.48,6.1704e-09
+    ,-1.44,5.4457e-09
+    ,-1.4,4.8629e-09
+    ,-1.36,4.3947e-09
+    ,-1.32,4.0187e-09
+    ,-1.28,3.717e-09
+    ,-1.24,3.475e-09
+    ,-1.2,3.281e-09
+    ,-1.16,3.1256e-09
+    ,-1.12,3.0011e-09
+    ,-1.08,2.9014e-09
+    ,-1.04,2.8216e-09
+    ,-1.0,2.7578e-09
+    ,-0.96,2.7068e-09
+    ,-0.92,2.6661e-09
+    ,-0.88,2.6337e-09
+    ,-0.84,2.6079e-09
+    ,-0.8,2.5874e-09
+    ,-0.76,2.5711e-09
+    ,-0.72,2.5583e-09
+    ,-0.68,2.5482e-09
+    ,-0.64,2.5402e-09
+    ,-0.6,2.5338e-09
+    ,-0.56,2.5288e-09
+    ,-0.52,2.5248e-09
+    ,-0.48,2.5216e-09
+    ,-0.44,2.5189e-09
+    ,-0.4,2.5167e-09
+    ,-0.36,2.5148e-09
+    ,-0.32,2.5131e-09
+    ,-0.28,2.5116e-09
+    ,-0.24,2.5102e-09
+    ,-0.2,2.5088e-09
+    ,-0.16,2.5073e-09
+    ,-0.12,2.5056e-09
+    ,-0.08,2.5032e-09
+    ,-0.04,2.4994e-09
+    ,0.0,2.4931e-09
+    ,6.6,2.4931e-09
+    ,7.6,2.4931e-09),
+	pwl(V(A_pcref, A_signal) 
+    ,-4.28,4.3799e-05
+    ,-3.28,4.3799e-05
+    ,-3.24,4.3795e-05
+    ,-3.2,4.3792e-05
+    ,-3.16,4.3789e-05
+    ,-3.12,4.3785e-05
+    ,-3.08,4.3782e-05
+    ,-3.04,4.3778e-05
+    ,-3.0,4.3775e-05
+    ,-2.96,4.3771e-05
+    ,-2.92,4.3767e-05
+    ,-2.88,4.3764e-05
+    ,-2.84,4.376e-05
+    ,-2.8,4.3756e-05
+    ,-2.76,4.3751e-05
+    ,-2.72,4.3746e-05
+    ,-2.68,4.3738e-05
+    ,-2.64,4.3687e-05
+    ,-2.6,4.3177e-05
+    ,-2.56,3.9275e-05
+    ,-2.52,3.4848e-05
+    ,-2.48,3.0518e-05
+    ,-2.44,2.6415e-05
+    ,-2.4,2.2601e-05
+    ,-2.36,1.9113e-05
+    ,-2.32,1.5974e-05
+    ,-2.28,1.3194e-05
+    ,-2.24,1.0772e-05
+    ,-2.2,8.697e-06
+    ,-2.16,6.9481e-06
+    ,-2.12,5.4979e-06
+    ,-2.08,4.3134e-06
+    ,-2.04,3.3592e-06
+    ,-2.0,2.5997e-06
+    ,-1.96,2.0013e-06
+    ,-1.92,1.5339e-06
+    ,-1.88,1.1713e-06
+    ,-1.84,8.916e-07
+    ,-1.8,6.767e-07
+    ,-1.76,5.122e-07
+    ,-1.72,3.867e-07
+    ,-1.68,2.913e-07
+    ,-1.64,2.188e-07
+    ,-1.6,1.64e-07
+    ,-1.56,1.226e-07
+    ,-1.52,9.149e-08
+    ,-1.48,6.8096e-08
+    ,-1.44,5.0578e-08
+    ,-1.4,3.7496e-08
+    ,-1.36,2.7757e-08
+    ,-1.32,2.0532e-08
+    ,-1.28,1.5192e-08
+    ,-1.24,1.1265e-08
+    ,-1.2,8.3926e-09
+    ,-1.16,6.3045e-09
+    ,-1.12,4.7973e-09
+    ,-1.08,3.7177e-09
+    ,-1.04,2.9502e-09
+    ,-1.0,2.4088e-09
+    ,-0.96,2.0297e-09
+    ,-0.92,1.7659e-09
+    ,-0.88,1.5834e-09
+    ,-0.84,1.458e-09
+    ,-0.8,1.3721e-09
+    ,-0.76,1.3135e-09
+    ,-0.72,1.2739e-09
+    ,-0.68,1.2472e-09
+    ,-0.64,1.2294e-09
+    ,-0.6,1.2177e-09
+    ,-0.56,1.21e-09
+    ,-0.52,1.2049e-09
+    ,-0.48,1.2014e-09
+    ,-0.44,1.199e-09
+    ,-0.4,1.1972e-09
+    ,-0.36,1.1957e-09
+    ,-0.32,1.1943e-09
+    ,-0.28,1.1931e-09
+    ,-0.24,1.192e-09
+    ,-0.2,1.1909e-09
+    ,-0.16,1.1897e-09
+    ,-0.12,1.1883e-09
+    ,-0.08,1.1863e-09
+    ,-0.04,1.1824e-09
+    ,0.0,1.1747e-09
+    ,6.6,1.1747e-09
+    ,7.6,1.1747e-09))

C_comp_pc A_signal A_pcref {C_comp_power_clamp}  
C_comp_gc A_gcref A_signal {C_comp_gnd_clamp}  

* gnetlist -g spice-sdb -o ibis_input.inc ibis_input.sch
*********************************************************
* Spice file generated by gnetlist                      *
* spice-sdb version 4.28.2007 by SDB --                 *
* provides advanced spice netlisting capability.        *
* Documentation at http://www.brorson.com/gEDA/SPICE/   *
*********************************************************
*==============  Begin SPICE netlist of main design ============
B_DC_Margin 0 dc_margin V={max(V(A_signal, Vth) - Vinh_dc, 0) + max(V(Vth, A_signal) + Vinl_dc, 0)}
B_AC_Margin 0 ac_margin V={max(V(A_signal, Vth) - Vinh_ac, 0) + max(V(Vth, A_signal) + Vinl_ac, 0)}
B_slew_violation slew_violation 0 V={max(V(unknown_time) - Tslew_ac, 0)}
A_unknown unknown unknown_time time_ramp
B_unknown unknown 0 V={V(state) > 0 && V(state) < 1 ? 1 : 0}
B_Vth 0 Vth V={Vth+threshold_sensitivity*(V(A_gcref)-Vref_supply)}
V_sw0 2 0 DC 0.125V
V_sw1 0 1 DC 1.125V
S_off state 2 A_signal Vth off ON 
S_on state 1 A_signal Vth on OFF 
A_in [state] [D_receive] adc_in
.model adc_in adc_bridge(in_low=0 in_high=1 rise_delay=1f fall_delay=1f)
.model on sw(vt={(Vinh_ac + Vinh_dc)/2} vh={(Vinh_ac - Vinh_dc)/2} ron=1 roff=9)
.model off sw(vt={(Vinl_dc + Vinl_ac)/2} vh={(Vinl_dc - Vinl_ac)/2} ron=9 roff=1)
.model simple sw(vt=0 vh=1 ron=1 roff=3
.model time_ramp slew(rise_slope=1 fall_slope=1e12)

.model inv d_inverter(rise_delay=1f fall_delay=1f input_load=0)
A_not_en D_enable D_not_enable inv
A_always_hi always_hi pullup
.ends F_CSB
.endl
.lib F_HOLDB_QUAD
* type - i/o